32
Generated by program
Ni 0.0 0.0 0.0
Ni 3.0625 0.0 3.0625
Ni 0.0 3.0625 3.0625
Ni 3.0625 3.0625 0.0
Ni 0.0 0.0 1.75
Ni 3.0625 0.0 4.8125
Ni 0.0 3.0625 4.8125
Ni 3.0625 3.0625 1.75
Ni 0.0 1.75 0.0
Ni 3.0625 1.75 3.0625
Ni 0.0 4.8125 3.0625
Ni 3.0625 4.8125 0.0
Ni 0.0 1.75 1.75
Ni 3.0625 1.75 4.8125
Ni 0.0 4.8125 4.8125
Ni 3.0625 4.8125 1.75
Ni 1.75 0.0 0.0
Ni 4.8125 0.0 3.0625
Ni 1.75 3.0625 3.0625
Ni 4.8125 3.0625 0.0
Ni 1.75 0.0 1.75
Ni 4.8125 0.0 4.8125
Ni 1.75 3.0625 4.8125
Ni 4.8125 3.0625 1.75
Ni 1.75 1.75 0.0
Ni 4.8125 1.75 3.0625
Ni 1.75 4.8125 3.0625
Ni 4.8125 4.8125 0.0
Ni 1.75 1.75 1.75
Ni 4.8125 1.75 4.8125
Ni 1.75 4.8125 4.8125
Ni 4.8125 4.8125 1.75
